*Heading
** Job name: V8Template Model name: MagMemModel_Tied
** Generated by: Abaqus/CAE 2022
*Preprint, echo=NO, model=NO, history=NO, contact=NO
**
** PARTS
**
*Part, name=PART-1
*Node
      1,         -10.,         -10.,           0.
      2,          -9.,         -10.,           0.
      3,          -8.,         -10.,           0.
      4,          -7.,         -10.,           0.
      5,          -6.,         -10.,           0.
      6,          -5.,         -10.,           0.
      7,          -4.,         -10.,           0.
      8,          -3.,         -10.,           0.
      9,          -2.,         -10.,           0.
     10,          -1.,         -10.,           0.
     11,           0.,         -10.,           0.
     12,           1.,         -10.,           0.
     13,           2.,         -10.,           0.
     14,           3.,         -10.,           0.
     15,           4.,         -10.,           0.
     16,           5.,         -10.,           0.
     17,           6.,         -10.,           0.
     18,           7.,         -10.,           0.
     19,           8.,         -10.,           0.
     20,           9.,         -10.,           0.
** ... 421 like lines cut
*Element, type=S4R
  1,   1,   2,  23,  22
  2,   2,   3,  24,  23
  3,   3,   4,  25,  24
  4,   4,   5,  26,  25
  5,   5,   6,  27,  26
  6,   6,   7,  28,  27
  7,   7,   8,  29,  28
  8,   8,   9,  30,  29
  9,   9,  10,  31,  30
 10,  10,  11,  32,  31
 11,  11,  12,  33,  32
 12,  12,  13,  34,  33
 13,  13,  14,  35,  34
 14,  14,  15,  36,  35
 15,  15,  16,  37,  36
 16,  16,  17,  38,  37
 17,  17,  18,  39,  38
 18,  18,  19,  40,  39
 19,  19,  20,  41,  40
 20,  20,  21,  42,  41
** ... 380 like lines cut
*Nset, nset=SET-1, generate
   1,  441,    1
*Elset, elset=SET-1, generate
   1,  400,    1
*Nset, nset=SET-2, generate
  1,  21,   1
*Elset, elset=SET-2, generate
  1,  20,   1
*Elset, elset=_SURF-1_SPOS, internal, generate
   1,  400,    1
*Surface, type=ELEMENT, name=SURF-1
_SURF-1_SPOS, SPOS
*Elset, elset=__PickedSurf9_SPOS, internal, generate
   1,  400,    1
*Surface, type=ELEMENT, name=_PickedSurf9, internal
__PickedSurf9_SPOS, SPOS
*Orientation, name=Ori-PART-1_ORI-1-DISCORIENT, system=RECTANGULAR
PART-1_ORI-1-DISCORIENT
3, 0.
** Section: Section-1-SET-1
*Shell Section, elset=SET-1, material=PDMS_NI_5_PERCENT_THETA0_PHI90, orientation=Ori-PART-1_ORI-1-DISCORIENT
1., 5
*Distribution, name=PART-1_ORI-1-DISCORIENT, location=ELEMENT, Table=PART-1_ORI-1-DISCORIENT_Table
,           1.,           0.,           0.,           0.,           1.,           0.
1,           1.,           0.,           0.,           0.,           1.,           0.
2,           1.,           0.,           0.,           0.,           1.,           0.
3,           1.,           0.,           0.,           0.,           1.,           0.
4,           1.,           0.,           0.,           0.,           1.,           0.
5,           1.,           0.,           0.,           0.,           1.,           0.
6,           1.,           0.,           0.,           0.,           1.,           0.
7,           1.,           0.,           0.,           0.,           1.,           0.
8,           1.,           0.,           0.,           0.,           1.,           0.
9,           1.,           0.,           0.,           0.,           1.,           0.
10,           1.,           0.,           0.,           0.,           1.,           0.
11,           1.,           0.,           0.,           0.,           1.,           0.
12,           1.,           0.,           0.,           0.,           1.,           0.
13,           1.,           0.,           0.,           0.,           1.,           0.
14,           1.,           0.,           0.,           0.,           1.,           0.
15,           1.,           0.,           0.,           0.,           1.,           0.
16,           1.,           0.,           0.,           0.,           1.,           0.
17,           1.,           0.,           0.,           0.,           1.,           0.
18,           1.,           0.,           0.,           0.,           1.,           0.
19,           1.,           0.,           0.,           0.,           1.,           0.
20,           1.,           0.,           0.,           0.,           1.,           0.
** ... 380 like lines cut
*End Part
**  
*Part, name=SKIN&MUSCLE
*Node
      1,         -10.,           0.,          35.
      2,          10.,           0.,          35.
      3,          10.,           0.,          15.
      4,         -10.,           0.,          15.
      5,         -25.,           0.,          50.
      6,          25.,           0.,          50.
      7,          25.,           0.,           0.
      8,         -25.,           0.,           0.
      9,         -25., -0.600000024,          50.
     10,         -25., -0.600000024,           0.
     11,          25., -0.600000024,           0.
     12,          25., -0.600000024,          50.
     13,          25.,  -10.6000004,          50.
     14,         -25.,  -10.6000004,          50.
     15,         -25.,  -10.6000004,           0.
     16,          25.,  -10.6000004,           0.
     17,         -9.5,           0.,          35.
     18,          -9.,           0.,          35.
     19,         -8.5,           0.,          35.
     20,          -8.,           0.,          35.
** ... 26573 like lines cut
*Element, type=C3D8H
   1,  172,  477,   17,    1, 4175, 4176, 4020, 4016
   2,  477,  478,   18,   17, 4176, 4177, 4021, 4020
   3,  478,  479,   19,   18, 4177, 4178, 4022, 4021
   4,  479,  480,   20,   19, 4178, 4179, 4023, 4022
   5,  480,  481,   21,   20, 4179, 4180, 4024, 4023
   6,  481,  482,   22,   21, 4180, 4181, 4025, 4024
   7,  482,  483,   23,   22, 4181, 4182, 4026, 4025
   8,  483,  484,   24,   23, 4182, 4183, 4027, 4026
   9,  484,  485,   25,   24, 4183, 4184, 4028, 4027
  10,  485,  486,   26,   25, 4184, 4185, 4029, 4028
  11,  486,  487,   27,   26, 4185, 4186, 4030, 4029
  12,  487,  488,   28,   27, 4186, 4187, 4031, 4030
  13,  488,  489,   29,   28, 4187, 4188, 4032, 4031
  14,  489,  490,   30,   29, 4188, 4189, 4033, 4032
  15,  490,  491,   31,   30, 4189, 4190, 4034, 4033
  16,  491,  492,   32,   31, 4190, 4191, 4035, 4034
  17,  492,  493,   33,   32, 4191, 4192, 4036, 4035
  18,  493,  494,   34,   33, 4192, 4193, 4037, 4036
  19,  494,  495,   35,   34, 4193, 4194, 4038, 4037
  20,  495,  496,   36,   35, 4194, 4195, 4039, 4038
** ... 22468 like lines cut
*Nset, nset=SKIN_SET
    1,    2,    3,    4,    5,    6,    7,    8,    9,   10,   11,   12,   17,   18,   19,   20
   21,   22,   23,   24,   25,   26,   27,   28,   29,   30,   31,   32,   33,   34,   35,   36
   37,   38,   39,   40,   41,   42,   43,   44,   45,   46,   47,   48,   49,   50,   51,   52
   53,   54,   55,   56,   57,   58,   59,   60,   61,   62,   63,   64,   65,   66,   67,   68
   69,   70,   71,   72,   73,   74,   75,   76,   77,   78,   79,   80,   81,   82,   83,   84
   85,   86,   87,   88,   89,   90,   91,   92,   93,   94,   95,   96,   97,   98,   99,  100
  101,  102,  103,  104,  105,  106,  107,  108,  109,  110,  111,  112,  113,  114,  115,  116
  117,  118,  119,  120,  121,  122,  123,  124,  125,  126,  127,  128,  129,  130,  131,  132
  133,  134,  135,  136,  137,  138,  139,  140,  141,  142,  143,  144,  145,  146,  147,  148
  149,  150,  151,  152,  153,  154,  155,  156,  157,  158,  159,  160,  161,  162,  163,  164
  165,  166,  167,  168,  169,  170,  171,  172,  173,  174,  175,  176,  177,  178,  179,  180
  181,  182,  183,  184,  185,  186,  187,  188,  189,  190,  191,  192,  193,  194,  195,  196
  197,  198,  199,  200,  201,  202,  203,  204,  205,  206,  207,  208,  209,  210,  211,  212
  213,  214,  215,  216,  217,  218,  219,  220,  221,  222,  223,  224,  225,  226,  227,  228
  229,  230,  231,  232,  233,  234,  235,  236,  237,  238,  239,  240,  241,  242,  243,  244
  245,  246,  247,  248,  249,  250,  251,  252,  253,  254,  255,  256,  257,  258,  259,  260
  261,  262,  263,  264,  265,  266,  267,  268,  269,  270,  271,  272,  273,  274,  275,  276
  277,  278,  279,  280,  281,  282,  283,  284,  285,  286,  287,  288,  289,  290,  291,  292
  293,  294,  295,  296,  297,  298,  299,  300,  301,  302,  303,  304,  305,  306,  307,  308
  309,  310,  311,  312,  313,  314,  315,  316,  317,  318,  319,  320,  321,  322,  323,  324
** ... 455 like lines cut
*Elset, elset=SKIN_SET, generate
    1,  3748,     1
*Nset, nset=MUSCLE_SET
     9,    10,    11,    12,    13,    14,    15,    16,   269,   270,   271,   272,   273,   274,   275,   276
   277,   278,   279,   280,   281,   282,   283,   284,   285,   286,   287,   288,   289,   290,   291,   292
   293,   294,   295,   296,   297,   298,   299,   300,   301,   302,   303,   304,   305,   306,   307,   308
   309,   310,   311,   312,   313,   314,   315,   316,   317,   318,   319,   320,   321,   322,   323,   324
   325,   326,   327,   328,   329,   330,   331,   332,   333,   334,   335,   336,   337,   338,   339,   340
   341,   342,   343,   344,   345,   346,   347,   348,   349,   350,   351,   352,   353,   354,   355,   356
   357,   358,   359,   360,   361,   362,   363,   364,   365,   366,   367,   368,   369,   370,   371,   372
   373,   374,   375,   376,   377,   378,   379,   380,   381,   382,   383,   384,   385,   386,   387,   388
   389,   390,   391,   392,   393,   394,   395,   396,   397,   398,   399,   400,   401,   402,   403,   404
   405,   406,   407,   408,   409,   410,   411,   412,   413,   414,   415,   416,   417,   418,   419,   420
   421,   422,   423,   424,   425,   426,   427,   428,   429,   430,   431,   432,   433,   434,   435,   436
   437,   438,   439,   440,   441,   442,   443,   444,   445,   446,   447,   448,   449,   450,   451,   452
   453,   454,   455,   456,   457,   458,   459,   460,   461,   462,   463,   464,   465,   466,   467,   468
   469,   470,   471,   472,   473,   474,   475,   476,  4016,  4017,  4018,  4019,  4020,  4021,  4022,  4023
  4024,  4025,  4026,  4027,  4028,  4029,  4030,  4031,  4032,  4033,  4034,  4035,  4036,  4037,  4038,  4039
  4040,  4041,  4042,  4043,  4044,  4045,  4046,  4047,  4048,  4049,  4050,  4051,  4052,  4053,  4054,  4055
  4056,  4057,  4058,  4059,  4060,  4061,  4062,  4063,  4064,  4065,  4066,  4067,  4068,  4069,  4070,  4071
  4072,  4073,  4074,  4075,  4076,  4077,  4078,  4079,  4080,  4081,  4082,  4083,  4084,  4085,  4086,  4087
  4088,  4089,  4090,  4091,  4092,  4093,  4094,  4095,  4096,  4097,  4098,  4099,  4100,  4101,  4102,  4103
  4104,  4105,  4106,  4107,  4108,  4109,  4110,  4111,  4112,  4113,  4114,  4115,  4116,  4117,  4118,  4119
** ... 1405 like lines cut
*Elset, elset=MUSCLE_SET, generate
  3749,  22488,      1
*Orientation, name=Ori-1
1., 0., 0., 0., 1., 0.
2, 0.
** Section: SKIN_SECTION
*Solid Section, elset=SKIN_SET, orientation=Ori-1, material=SKIN
,
** Section: MUSCLE_SECTION
*Solid Section, elset=MUSCLE_SET, material=MUSCLE
,
*End Part
**  
**
** ASSEMBLY
**
*Assembly, name=Assembly
**  
*Instance, name=PART-1-1, part=PART-1
         25.,          0.5,          25.
         25.,          0.5,          25.,          24.,          0.5,          25.,          90.
*End Instance
**  
*Instance, name=SKIN&MUSCLE-1, part=SKIN&MUSCLE
         25., -2.45548340466059e-16,           0.
*End Instance
**  
*Nset, nset=BODY_FACE, instance=PART-1-1, generate
   1,  441,    1
*Elset, elset=BODY_FACE, instance=PART-1-1, generate
   1,  400,    1
*Nset, nset=LEFT_EDGE, instance=PART-1-1, generate
   1,  421,   21
*Elset, elset=LEFT_EDGE, instance=PART-1-1, generate
   1,  381,   20
*Elset, elset=Set-4, instance=SKIN&MUSCLE-1, generate
    1,  3748,     1
*Nset, nset=TopSkinNodes, instance=SKIN&MUSCLE-1
    1,    2,    3,    4,    5,    6,    7,    8,   17,   18,   19,   20,   21,   22,   23,   24
   25,   26,   27,   28,   29,   30,   31,   32,   33,   34,   35,   36,   37,   38,   39,   40
   41,   42,   43,   44,   45,   46,   47,   48,   49,   50,   51,   52,   53,   54,   55,   56
   57,   58,   59,   60,   61,   62,   63,   64,   65,   66,   67,   68,   69,   70,   71,   72
   73,   74,   75,   76,   77,   78,   79,   80,   81,   82,   83,   84,   85,   86,   87,   88
   89,   90,   91,   92,   93,   94,   95,   96,   97,   98,   99,  100,  101,  102,  103,  104
  105,  106,  107,  108,  109,  110,  111,  112,  113,  114,  115,  116,  117,  118,  119,  120
  121,  122,  123,  124,  125,  126,  127,  128,  129,  130,  131,  132,  133,  134,  135,  136
  137,  138,  139,  140,  141,  142,  143,  144,  145,  146,  147,  148,  149,  150,  151,  152
  153,  154,  155,  156,  157,  158,  159,  160,  161,  162,  163,  164,  165,  166,  167,  168
  169,  170,  171,  172,  173,  174,  175,  176,  177,  178,  179,  180,  181,  182,  183,  184
  185,  186,  187,  188,  189,  190,  191,  192,  193,  194,  195,  196,  197,  198,  199,  200
  201,  202,  203,  204,  205,  206,  207,  208,  209,  210,  211,  212,  213,  214,  215,  216
  217,  218,  219,  220,  221,  222,  223,  224,  225,  226,  227,  228,  229,  230,  231,  232
  233,  234,  235,  236,  237,  238,  239,  240,  241,  242,  243,  244,  245,  246,  247,  248
  249,  250,  251,  252,  253,  254,  255,  256,  257,  258,  259,  260,  261,  262,  263,  264
  265,  266,  267,  268,  477,  478,  479,  480,  481,  482,  483,  484,  485,  486,  487,  488
  489,  490,  491,  492,  493,  494,  495,  496,  497,  498,  499,  500,  501,  502,  503,  504
  505,  506,  507,  508,  509,  510,  511,  512,  513,  514,  515,  516,  517,  518,  519,  520
  521,  522,  523,  524,  525,  526,  527,  528,  529,  530,  531,  532,  533,  534,  535,  536
** ... 218 like lines cut
*Nset, nset=_PickedSet12, internal, instance=SKIN&MUSCLE-1
     5,     6,     7,     8,     9,    10,    11,    12,    13,    14,    15,    16,   173,   174,   175,   176
   177,   178,   179,   180,   181,   182,   183,   184,   185,   186,   187,   188,   189,   190,   191,   192
   193,   194,   195,   196,   221,   222,   223,   224,   225,   226,   227,   228,   229,   230,   231,   232
   233,   234,   235,   236,   237,   238,   239,   240,   241,   242,   243,   244,   293,   294,   295,   296
   297,   298,   299,   300,   301,   302,   303,   304,   305,   306,   307,   308,   309,   310,   311,   312
   313,   314,   315,   316,   341,   342,   343,   344,   345,   346,   347,   348,   349,   350,   351,   352
   353,   354,   355,   356,   357,   358,   359,   360,   361,   362,   363,   364,   365,   366,   367,   368
   369,   370,   371,   372,   373,   374,   375,   376,   377,   378,   379,   380,   381,   382,   383,   384
   385,   386,   387,   388,   389,   390,   391,   392,   393,   394,   395,   396,   397,   398,   399,   400
   401,   402,   403,   404,   429,   430,   431,   432,   433,   434,   435,   436,   437,   438,   439,   440
   441,   442,   443,   444,   445,   446,   447,   448,   449,   450,   451,   452, 11414, 11415, 11416, 11417
 11418, 11419, 11420, 11421, 11422, 11423, 11424, 11425, 11426, 11427, 11428, 11429, 11430, 11431, 11432, 11433
 11434, 11435, 11436, 11437, 11438, 11439, 11440, 11441, 11442, 11443, 11444, 11445, 11446, 11447, 11448, 11449
 11450, 11451, 11452, 11453, 11454, 11455, 11456, 11457, 11458, 11459, 11460, 11461, 11462, 11463, 11464, 11465
 11466, 11467, 11468, 11469, 11470, 11471, 11472, 11473, 11474, 11475, 11476, 11477, 11478, 11479, 11480, 11481
 11482, 11483, 11484, 11485, 11486, 11487, 11488, 11489, 11490, 11491, 11492, 11493, 11494, 11495, 11496, 11497
 11498, 11499, 11500, 11501, 11502, 11503, 11504, 11505, 11506, 11507, 11508, 11509, 11606, 11607, 11608, 11609
 11610, 11611, 11612, 11613, 11614, 11615, 11616, 11617, 11618, 11619, 11620, 11621, 11622, 11623, 11624, 11625
 11626, 11627, 11628, 11629, 11630, 11631, 11632, 11633, 11634, 11635, 11636, 11637, 11638, 11639, 11640, 11641
 11642, 11643, 11644, 11645, 11646, 11647, 11648, 11649, 11650, 11651, 11652, 11653, 11654, 11655, 11656, 11657
 11658, 11659, 11660, 11661, 11662, 11663, 11664, 11665, 11666, 11667, 11668, 11669, 11670, 11671, 11672, 11673
 11674, 11675, 11676, 11677, 11678, 11679, 11680, 11681, 11682, 11683, 11684, 11685, 11686, 11687, 11688, 11689
 11690, 11691, 11692, 11693, 11694, 11695, 11696, 11697, 11698, 11699, 11700, 11701
*Elset, elset=_PickedSet12, internal, instance=SKIN&MUSCLE-1
  1601,  1621,  1641,  1642,  1643,  1682,  1683,  1684,  1685,  1704,  1705,  1756,  1757,  1758,  1759,  1773
  1774,  1856,  1857,  1858,  1859,  1860,  1861,  1862,  1864,  1873,  1890,  1891,  1911,  1918,  1920,  1924
  1925,  1926,  1927,  1928,  1929,  1940,  2124,  2128,  2133,  2134,  2135,  2136,  2354,  2357,  3639,  3648
  3650,  3651,  5349,  5369,  5389,  5390,  5391,  5430,  5431,  5432,  5433,  5452,  5453,  5504,  5505,  5506
  5507,  5521,  5522,  5604,  5605,  5606,  5607,  5608,  5609,  5610,  5612,  5621,  5638,  5639,  5659,  5666
  5668,  5672,  5673,  5674,  5675,  5676,  5677,  5688,  5872,  5876,  5881,  5882,  5883,  5884,  6102,  6105
  7387,  7396,  7398,  7399,  9097,  9117,  9137,  9138,  9139,  9178,  9179,  9180,  9181,  9200,  9201,  9252
  9253,  9254,  9255,  9269,  9270,  9352,  9353,  9354,  9355,  9356,  9357,  9358,  9360,  9369,  9386,  9387
  9407,  9414,  9416,  9420,  9421,  9422,  9423,  9424,  9425,  9436,  9620,  9624,  9629,  9630,  9631,  9632
  9850,  9853, 11135, 11144, 11146, 11147, 12845, 12865, 12885, 12886, 12887, 12926, 12927, 12928, 12929, 12948
 12949, 13000, 13001, 13002, 13003, 13017, 13018, 13100, 13101, 13102, 13103, 13104, 13105, 13106, 13108, 13117
 13134, 13135, 13155, 13162, 13164, 13168, 13169, 13170, 13171, 13172, 13173, 13184, 13368, 13372, 13377, 13378
 13379, 13380, 13598, 13601, 14883, 14892, 14894, 14895, 16593, 16613, 16633, 16634, 16635, 16674, 16675, 16676
 16677, 16696, 16697, 16748, 16749, 16750, 16751, 16765, 16766, 16848, 16849, 16850, 16851, 16852, 16853, 16854
 16856, 16865, 16882, 16883, 16903, 16910, 16912, 16916, 16917, 16918, 16919, 16920, 16921, 16932, 17116, 17120
 17125, 17126, 17127, 17128, 17346, 17349, 18631, 18640, 18642, 18643, 20341, 20361, 20381, 20382, 20383, 20422
 20423, 20424, 20425, 20444, 20445, 20496, 20497, 20498, 20499, 20513, 20514, 20596, 20597, 20598, 20599, 20600
 20601, 20602, 20604, 20613, 20630, 20631, 20651, 20658, 20660, 20664, 20665, 20666, 20667, 20668, 20669, 20680
 20864, 20868, 20873, 20874, 20875, 20876, 21094, 21097, 22379, 22388, 22390, 22391
*Nset, nset=_PickedSet13, internal, instance=SKIN&MUSCLE-1
     5,     6,     7,     8,     9,    10,    11,    12,    13,    14,    15,    16,   197,   198,   199,   200
   201,   202,   203,   204,   205,   206,   207,   208,   209,   210,   211,   212,   213,   214,   215,   216
   217,   218,   219,   220,   245,   246,   247,   248,   249,   250,   251,   252,   253,   254,   255,   256
   257,   258,   259,   260,   261,   262,   263,   264,   265,   266,   267,   268,   269,   270,   271,   272
   273,   274,   275,   276,   277,   278,   279,   280,   281,   282,   283,   284,   285,   286,   287,   288
   289,   290,   291,   292,   317,   318,   319,   320,   321,   322,   323,   324,   325,   326,   327,   328
   329,   330,   331,   332,   333,   334,   335,   336,   337,   338,   339,   340,   365,   366,   367,   368
   369,   370,   371,   372,   373,   374,   375,   376,   377,   378,   379,   380,   405,   406,   407,   408
   409,   410,   411,   412,   413,   414,   415,   416,   417,   418,   419,   420,   421,   422,   423,   424
   425,   426,   427,   428,   453,   454,   455,   456,   457,   458,   459,   460,   461,   462,   463,   464
   465,   466,   467,   468,   469,   470,   471,   472,   473,   474,   475,   476, 11510, 11511, 11512, 11513
 11514, 11515, 11516, 11517, 11518, 11519, 11520, 11521, 11522, 11523, 11524, 11525, 11526, 11527, 11528, 11529
 11530, 11531, 11532, 11533, 11534, 11535, 11536, 11537, 11538, 11539, 11540, 11541, 11542, 11543, 11544, 11545
 11546, 11547, 11548, 11549, 11550, 11551, 11552, 11553, 11554, 11555, 11556, 11557, 11558, 11559, 11560, 11561
 11562, 11563, 11564, 11565, 11566, 11567, 11568, 11569, 11570, 11571, 11572, 11573, 11574, 11575, 11576, 11577
 11578, 11579, 11580, 11581, 11582, 11583, 11584, 11585, 11586, 11587, 11588, 11589, 11590, 11591, 11592, 11593
 11594, 11595, 11596, 11597, 11598, 11599, 11600, 11601, 11602, 11603, 11604, 11605, 11702, 11703, 11704, 11705
 11706, 11707, 11708, 11709, 11710, 11711, 11712, 11713, 11714, 11715, 11716, 11717, 11718, 11719, 11720, 11721
 11722, 11723, 11724, 11725, 11726, 11727, 11728, 11729, 11730, 11731, 11732, 11733, 11734, 11735, 11736, 11737
 11738, 11739, 11740, 11741, 11742, 11743, 11744, 11745, 11746, 11747, 11748, 11749, 11750, 11751, 11752, 11753
 11754, 11755, 11756, 11757, 11758, 11759, 11760, 11761, 11762, 11763, 11764, 11765, 11766, 11767, 11768, 11769
 11770, 11771, 11772, 11773, 11774, 11775, 11776, 11777, 11778, 11779, 11780, 11781, 11782, 11783, 11784, 11785
 11786, 11787, 11788, 11789, 11790, 11791, 11792, 11793, 11794, 11795, 11796, 11797
*Elset, elset=_PickedSet13, internal, instance=SKIN&MUSCLE-1
  1611,  1612,  1613,  1632,  1633,  1634,  1643,  1644,  1645,  1646,  1840,  1854,  1855,  1890,  1891,  1892
  1893,  1894,  1895,  1896,  1897,  1898,  1899,  1900,  1901,  1902,  1903,  1904,  1905,  1906,  1907,  1908
  1909,  1910,  1941,  1942,  1943,  1944,  1945,  1951,  1956,  2121,  2136,  2152,  2182,  2184,  2245,  2355
  2356,  3652,  5359,  5360,  5361,  5380,  5381,  5382,  5391,  5392,  5393,  5394,  5588,  5602,  5603,  5638
  5639,  5640,  5641,  5642,  5643,  5644,  5645,  5646,  5647,  5648,  5649,  5650,  5651,  5652,  5653,  5654
  5655,  5656,  5657,  5658,  5689,  5690,  5691,  5692,  5693,  5699,  5704,  5869,  5884,  5900,  5930,  5932
  5993,  6103,  6104,  7400,  9107,  9108,  9109,  9128,  9129,  9130,  9139,  9140,  9141,  9142,  9336,  9350
  9351,  9386,  9387,  9388,  9389,  9390,  9391,  9392,  9393,  9394,  9395,  9396,  9397,  9398,  9399,  9400
  9401,  9402,  9403,  9404,  9405,  9406,  9437,  9438,  9439,  9440,  9441,  9447,  9452,  9617,  9632,  9648
  9678,  9680,  9741,  9851,  9852, 11148, 12855, 12856, 12857, 12876, 12877, 12878, 12887, 12888, 12889, 12890
 13084, 13098, 13099, 13134, 13135, 13136, 13137, 13138, 13139, 13140, 13141, 13142, 13143, 13144, 13145, 13146
 13147, 13148, 13149, 13150, 13151, 13152, 13153, 13154, 13185, 13186, 13187, 13188, 13189, 13195, 13200, 13365
 13380, 13396, 13426, 13428, 13489, 13599, 13600, 14896, 16603, 16604, 16605, 16624, 16625, 16626, 16635, 16636
 16637, 16638, 16832, 16846, 16847, 16882, 16883, 16884, 16885, 16886, 16887, 16888, 16889, 16890, 16891, 16892
 16893, 16894, 16895, 16896, 16897, 16898, 16899, 16900, 16901, 16902, 16933, 16934, 16935, 16936, 16937, 16943
 16948, 17113, 17128, 17144, 17174, 17176, 17237, 17347, 17348, 18644, 20351, 20352, 20353, 20372, 20373, 20374
 20383, 20384, 20385, 20386, 20580, 20594, 20595, 20630, 20631, 20632, 20633, 20634, 20635, 20636, 20637, 20638
 20639, 20640, 20641, 20642, 20643, 20644, 20645, 20646, 20647, 20648, 20649, 20650, 20681, 20682, 20683, 20684
 20685, 20691, 20696, 20861, 20876, 20892, 20922, 20924, 20985, 21095, 21096, 22392
*Nset, nset=_PickedSet14, internal, instance=SKIN&MUSCLE-1
    13,    14,    15,    16,   381,   382,   383,   384,   385,   386,   387,   388,   389,   390,   391,   392
   393,   394,   395,   396,   397,   398,   399,   400,   401,   402,   403,   404,   405,   406,   407,   408
   409,   410,   411,   412,   413,   414,   415,   416,   417,   418,   419,   420,   421,   422,   423,   424
   425,   426,   427,   428,   429,   430,   431,   432,   433,   434,   435,   436,   437,   438,   439,   440
   441,   442,   443,   444,   445,   446,   447,   448,   449,   450,   451,   452,   453,   454,   455,   456
   457,   458,   459,   460,   461,   462,   463,   464,   465,   466,   467,   468,   469,   470,   471,   472
   473,   474,   475,   476,  7715,  7716,  7717,  7718,  7719,  7720,  7721,  7722,  7723,  7724,  7725,  7726
  7727,  7728,  7729,  7730,  7731,  7732,  7733,  7734,  7735,  7736,  7737,  7738,  7739,  7740,  7741,  7742
  7743,  7744,  7745,  7746,  7747,  7748,  7749,  7750,  7751,  7752,  7753,  7754,  7755,  7756,  7757,  7758
  7759,  7760,  7761,  7762,  7763,  7764,  7765,  7766,  7767,  7768,  7769,  7770,  7771,  7772,  7773,  7774
  7775,  7776,  7777,  7778,  7779,  7780,  7781,  7782,  7783,  7784,  7785,  7786,  7787,  7788,  7789,  7790
  7791,  7792,  7793,  7794,  7795,  7796,  7797,  7798,  7799,  7800,  7801,  7802,  7803,  7804,  7805,  7806
  7807,  7808,  7809,  7810,  7811,  7812,  7813,  7814,  7815,  7816,  7817,  7818,  7819,  7820,  7821,  7822
  7823,  7824,  7825,  7826,  7827,  7828,  7829,  7830,  7831,  7832,  7833,  7834,  7835,  7836,  7837,  7838
  7839,  7840,  7841,  7842,  7843,  7844,  7845,  7846,  7847,  7848,  7849,  7850,  7851,  7852,  7853,  7854
  7855,  7856,  7857,  7858,  7859,  7860,  7861,  7862,  7863,  7864,  7865,  7866,  7867,  7868,  7869,  7870
  7871,  7872,  7873,  7874,  7875,  7876,  7877,  7878,  7879,  7880,  7881,  7882,  7883,  7884,  7885,  7886
  7887,  7888,  7889,  7890,  7891,  7892,  7893,  7894,  7895,  7896,  7897,  7898,  7899,  7900,  7901,  7902
  7903,  7904,  7905,  7906,  7907,  7908,  7909,  7910,  7911,  7912,  7913,  7914,  7915,  7916,  7917,  7918
  7919,  7920,  7921,  7922,  7923,  7924,  7925,  7926,  7927,  7928,  7929,  7930,  7931,  7932,  7933,  7934
** ... 218 like lines cut
*Elset, elset=_PickedSet14, internal, instance=SKIN&MUSCLE-1, generate
 18741,  22488,      1
*Elset, elset=__PickedSurf10_SNEG, internal, instance=PART-1-1, generate
   1,  400,    1
*Surface, type=ELEMENT, name=_PickedSurf10, internal
__PickedSurf10_SNEG, SNEG
*Elset, elset=__PickedSurf16_S1, internal, instance=SKIN&MUSCLE-1, generate
    1,  1600,     1
*Surface, type=ELEMENT, name=_PickedSurf16, internal
__PickedSurf16_S1, S1
** Constraint: Perfect_Adhesive
*Tie, name=Perfect_Adhesive, adjust=yes, type=SURFACE TO SURFACE
_PickedSurf16, _PickedSurf10
*End Assembly
** 
** MATERIALS
** 
*Material, name=MUSCLE
*Hyperelastic, neo hooke
 0.00175,0.
*Material, name=PDMS_NI_5_PERCENT_THETA0_PHI90
*Elastic, type=LAMINA
10000., 5000., 0.481, 5000., 2000., 2000.
*Expansion, type=ORTHO
 0.05, 0.05,   0.
*Material, name=SKIN
*Anisotropic Hyperelastic, holzapfel, local direction=1
 0.000341,     0., 0.0178,  11.13,   0.29
*Distribution Table, name=PART-1_ORI-1-DISCORIENT_Table
coord3d, coord3d
** 
** BOUNDARY CONDITIONS
** 
** Name: BC-1 Type: Symmetry/Antisymmetry/Encastre
*Boundary
_PickedSet12, ZSYMM
** Name: BC-2 Type: Symmetry/Antisymmetry/Encastre
*Boundary
_PickedSet13, XSYMM
** Name: BC-3 Type: Symmetry/Antisymmetry/Encastre
*Boundary
_PickedSet14, ENCASTRE
** 
** PREDEFINED FIELDS
** 
** Name: Field-1   Type: Temperature
*Initial Conditions, type=TEMPERATURE
BODY_FACE, 0.
** ----------------------------------------------------------------
** 
** STEP: Step-1
** 
*Step, name=Step-1, nlgeom=YES, inc=10000
*Static, direct
0.1, 1., 
** 
** PREDEFINED FIELDS
** 
** Name: Field-1   Type: Temperature
*Temperature, op=NEW
** Name: Field-2   Type: Temperature
*Temperature, op=NEW
BODY_FACE, 1.
** 
** OUTPUT REQUESTS
** 
*Restart, write, frequency=0
** 
** FIELD OUTPUT: F-Output-1
** 
*Output, field
*Node Output
CF, RF, U
*Element Output, directions=YES
LE, NE, PE, PEEQ, PEMAG, S
*Contact Output
CDISP, CSTRESS
** 
** HISTORY OUTPUT: H-Output-1
** 
*Output, history, variable=PRESELECT
*End Step
